/*--------------------------------*- C++ -*----------------------------------*\
| =========                 |                                                 |
| \\      /  F ield         | OpenFOAM: The Open Source CFD Toolbox           |
|  \\    /   O peration     | Version:  4.1                                   |
|   \\  /    A nd           | Web:      www.OpenFOAM.org                      |
|    \\/     M anipulation  |                                                 |
\*---------------------------------------------------------------------------*/
FoamFile
{
    version     2.0;
    format      ascii;
    class       volVectorField;
    location    "0";
    object      U;
}
// * * * * * * * * * * * * * * * * * * * * * * * * * * * * * * * * * * * * * //

dimensions      [0 1 -1 0 0 0 0];

internalField   uniform (0 0 0);

boundaryField
{
    frontAndBack
    {
        type            empty;
    }
    bottom
    {
        type            empty;
    }
    walls
    {
       type            zeroGradient;
    }
    walls2
    {
        type            zeroGradient; 
    }

    upperInlet
    {
	type            fixedValue;
        value           uniform (0 2.6e-2 0);
    }
    lowerInlet
    {
       type            fixedValue;
       value           uniform (0 -2.6e-2 0);
    }
    rightInlet
    {
         type            fixedValue;
         value           uniform (2.6e-2 0 0);
    }
    leftInlet
    {
        type            fixedValue;
        value           uniform (-2.6e-2 0 0);  
    }

}


// ************************************************************************* //
