/*--------------------------------*- C++ -*----------------------------------*\
  =========                 |
  \\      /  F ield         | OpenFOAM: The Open Source CFD Toolbox
   \\    /   O peration     | Website:  https://openfoam.org
    \\  /    A nd           | Version:  7
     \\/     M anipulation  |
\*---------------------------------------------------------------------------*/
FoamFile
{
    version     2.0;
    format      ascii;
    class       polyBoundaryMesh;
    location    "constant/polyMesh";
    object      boundary;
}
// * * * * * * * * * * * * * * * * * * * * * * * * * * * * * * * * * * * * * //

4
(
    frontAndBack
    {
        type            empty;
        inGroups        List<word> 1(empty);
        nFaces          40;
        startFace       19;
    }
    top
    {
        type            patch;
        nFaces          1;
        startFace       59;
    }
    bottom
    {
        type            patch;
        nFaces          1;
        startFace       60;
    }
    walls
    {
        type            patch;
        nFaces          40;
        startFace       61;
    }
)

// ************************************************************************* //
