/*--------------------------------*- C++ -*----------------------------------*\
| =========                 |                                                 |
| \\      /  F ield         | OpenFOAM: The Open Source CFD Toolbox           |
|  \\    /   O peration     | Version:  4.1                                   |
|   \\  /    A nd           | Web:      www.OpenFOAM.org                      |
|    \\/     M anipulation  |                                                 |
\*---------------------------------------------------------------------------*/
FoamFile
{
    version     2.0;
    format      ascii;
    class       dictionary;
    location    "constant";
    object      transportProperties;
}
// * * * * * * * * * * * * * * * * * * * * * * * * * * * * * * * * * * * * * //

phases (wetting nonWetting);

//specify wetting fluid properties
wetting 
{
    transportModel  Newtonian; 
    nu              [0 2 -1 0 0 0 0] 1.76e-5; //viscocity
    rho             [1 -3 0 0 0 0 0] 1; //rho
}

//specify non-wetting fluid properties
nonWetting
{
    transportModel  Newtonian;
    nu              [0 2 -1 0 0 0 0] 5e-6;  
    rho             [1 -3 0 0 0 0 0] 1000;
}

//Solid Phase Properties
activateSolidMechanics 1; //activate solid mechanics?
rho_s           [1 -3 0 0 0 0 0]  2650; //solid density

//Choose solid rheology model
transportModel  HerschelBulkleyQuemada; 
   
    HerschelBulkleyQuemadaCoeffs
    {
	nu0      [ 0 2 -1 0 0 0 0 ] 1e05; //viscocity at low stresses      
        tau0     [ 0 2 -2 0 0 0 0 ] 0.22; //yield stres
	epssMax  [ 0 0 0 0 0 0 0 ] 0.74; //maximum porosity
        nuf        [ 0 2 -1 0 0 0 0 ] 1e-6; //minumum viscocity 
	Dstar    [ 0 0 0 0 0 0 0 ] 1.1; //fractar coefficient
        n        [ 0 0 0 0 0 0 0 ] 1; //power law coefficient
    }     

//Two Phase Properties
activateCapillarity            0; //activate capillary model?
activatePorousContactAngle     0; //activate porous contact angle?
theta0                         180; //porous contact angle

sigma            [1 0 -2 0 0 0 0]  0.063; //surface tension
invFk0           [0 -2 0 0 0 0 0]  1.92e4; //2D correction 

//irriducible saturation
alpha.wettingmin           alpha.wettingmin [0  0  0 0 0 0 0] 0;
//maximum saturation
alpha.wettingmax           alpha.wettingmax [0  0  0 0 0 0 0] 0.999;

//choose relative and capillary pressure models
relativePermeabilityModel  VanGenuchten;
capillarityModel           VanGenuchten;

//parametrize Darcy models
VanGenuchtenCoeffs
{
    alpha.wettingminpc alpha.wettingminpc [0 0 0 0 0 0 0] 0;
    alpha.wettingmaxpc alpha.wettingmaxpc [0 0 0 0 0 0 0] 0.999;
    pc0 pc0 [1 -1 -2 0 0 0 0] 0; 
    m 0.05;
}

// ************************************************************************* //
